<configuration>
    <input>
       <net-file value="map.net.xml"/>
       <route-files value="map.rou.xml"/>
       <additional-files value="map.add.xml"/>
    </input>
    <time>
        <begin value="0"/>
        <end value="1e9"/>
        <step-length value="0.1"/>
    </time>
</configuration>
